Circuit: * C:\Users\PRANAV ARYA\Documents\GitHub\ECN351-Lab\FullWaweRectifier.asc

Direct Newton iteration failed to find .op point.  (Use ".option noopiter" to skip.)
Starting Gmin stepping
Gmin = 10
Gmin = 1.07374
Gmin = 0.115292
Gmin = 0.0123794
Gmin = 0.00132923
Gmin = 0.000142725
Gmin = 1.5325e-005
Gmin = 1.6455e-006
Gmin = 1.76685e-007
Gmin = 1.89714e-008
Gmin = 2.03704e-009
Gmin = 2.18725e-010
Gmin = 2.34854e-011
Gmin = 2.52173e-012
Gmin = 2.70769e-013
Gmin = 0
Gmin stepping succeeded in finding the operating point.


Date: Wed Sep 07 02:47:58 2022
Total elapsed time: 0.180 seconds.

tnom = 27
temp = 27
method = modified trap
totiter = 11940
traniter = 11324
tranpoints = 4348
accept = 3194
rejected = 1154
matrix size = 74
fillins = 102
solver = Normal
Matrix Compiler1: 8.39 KB object code size  1.9/1.0/[0.5]
Matrix Compiler2: 7.88 KB object code size  0.9/1.2/[0.4]

