Circuit: * C:\Users\PRANAV ARYA\Documents\GitHub\ECN351-Lab\invertor.asc

Direct Newton iteration for .op point succeeded.
Heightened Def Con from 0.030331 to 0.030331
Heightened Def Con from 0.075331 to 0.075331

Date: Sun Aug 21 08:10:25 2022
Total elapsed time: 0.106 seconds.

tnom = 27
temp = 27
method = modified trap
totiter = 27077
traniter = 27066
tranpoints = 10387
accept = 7328
rejected = 3061
matrix size = 38
fillins = 29
solver = Normal
Matrix Compiler1: 2.98 KB object code size  0.6/0.3/[0.1]
Matrix Compiler2: off  [0.2]/0.3/0.2

